<?xml version='1.0' encoding='UTF-8'?>
<additional><poly id="block_1" color="0.8,0.8,0.8" fill="1" shape="0,0 300,0 300,300 0,300" /><poly id="block_2" color="0.8,0.8,0.8" fill="1" shape="0,300 300,300 300,600 0,600" /><poly id="block_3" color="0.8,0.8,0.8" fill="1" shape="0,600 300,600 300,900 0,900" /><poly id="block_4" color="0.8,0.8,0.8" fill="1" shape="0,900 300,900 300,1200 0,1200" /><poly id="block_5" color="0.8,0.8,0.8" fill="1" shape="0,1200 300,1200 300,1500 0,1500" /><poly id="block_6" color="0.8,0.8,0.8" fill="1" shape="0,1500 300,1500 300,1800 0,1800" /><poly id="block_7" color="0.8,0.8,0.8" fill="1" shape="0,1800 300,1800 300,2100 0,2100" /><poly id="block_8" color="0.8,0.8,0.8" fill="1" shape="0,2100 300,2100 300,2400 0,2400" /><poly id="block_9" color="0.8,0.8,0.8" fill="1" shape="0,2400 300,2400 300,2700 0,2700" /><poly id="block_10" color="0.8,0.8,0.8" fill="1" shape="0,2700 300,2700 300,3000 0,3000" /><poly id="block_11" color="0.8,0.8,0.8" fill="1" shape="300,0 600,0 600,300 300,300" /><poly id="block_12" color="0.8,0.8,0.8" fill="1" shape="300,300 600,300 600,600 300,600" /><poly id="block_13" color="0.8,0.8,0.8" fill="1" shape="300,600 600,600 600,900 300,900" /><poly id="block_14" color="0.8,0.8,0.8" fill="1" shape="300,900 600,900 600,1200 300,1200" /><poly id="block_15" color="0.8,0.8,0.8" fill="1" shape="300,1200 600,1200 600,1500 300,1500" /><poly id="block_16" color="0.8,0.8,0.8" fill="1" shape="300,1500 600,1500 600,1800 300,1800" /><poly id="block_17" color="0.8,0.8,0.8" fill="1" shape="300,1800 600,1800 600,2100 300,2100" /><poly id="block_18" color="0.8,0.8,0.8" fill="1" shape="300,2100 600,2100 600,2400 300,2400" /><poly id="block_19" color="0.8,0.8,0.8" fill="1" shape="300,2400 600,2400 600,2700 300,2700" /><poly id="block_20" color="0.8,0.8,0.8" fill="1" shape="300,2700 600,2700 600,3000 300,3000" /><poly id="block_21" color="0.8,0.8,0.8" fill="1" shape="600,0 900,0 900,300 600,300" /><poly id="block_22" color="0.8,0.8,0.8" fill="1" shape="600,300 900,300 900,600 600,600" /><poly id="block_23" color="0.8,0.8,0.8" fill="1" shape="600,600 900,600 900,900 600,900" /><poly id="block_24" color="0.8,0.8,0.8" fill="1" shape="600,900 900,900 900,1200 600,1200" /><poly id="block_25" color="0.8,0.8,0.8" fill="1" shape="600,1200 900,1200 900,1500 600,1500" /><poly id="block_26" color="0.8,0.8,0.8" fill="1" shape="600,1500 900,1500 900,1800 600,1800" /><poly id="block_27" color="0.8,0.8,0.8" fill="1" shape="600,1800 900,1800 900,2100 600,2100" /><poly id="block_28" color="0.8,0.8,0.8" fill="1" shape="600,2100 900,2100 900,2400 600,2400" /><poly id="block_29" color="0.8,0.8,0.8" fill="1" shape="600,2400 900,2400 900,2700 600,2700" /><poly id="block_30" color="0.8,0.8,0.8" fill="1" shape="600,2700 900,2700 900,3000 600,3000" /><poly id="block_31" color="0.8,0.8,0.8" fill="1" shape="900,0 1200,0 1200,300 900,300" /><poly id="block_32" color="0.8,0.8,0.8" fill="1" shape="900,300 1200,300 1200,600 900,600" /><poly id="block_33" color="0.8,0.8,0.8" fill="1" shape="900,600 1200,600 1200,900 900,900" /><poly id="block_34" color="0.8,0.8,0.8" fill="1" shape="900,900 1200,900 1200,1200 900,1200" /><poly id="block_35" color="0.8,0.8,0.8" fill="1" shape="900,1200 1200,1200 1200,1500 900,1500" /><poly id="block_36" color="0.8,0.8,0.8" fill="1" shape="900,1500 1200,1500 1200,1800 900,1800" /><poly id="block_37" color="0.8,0.8,0.8" fill="1" shape="900,1800 1200,1800 1200,2100 900,2100" /><poly id="block_38" color="0.8,0.8,0.8" fill="1" shape="900,2100 1200,2100 1200,2400 900,2400" /><poly id="block_39" color="0.8,0.8,0.8" fill="1" shape="900,2400 1200,2400 1200,2700 900,2700" /><poly id="block_40" color="0.8,0.8,0.8" fill="1" shape="900,2700 1200,2700 1200,3000 900,3000" /><poly id="block_41" color="0.8,0.8,0.8" fill="1" shape="1200,0 1500,0 1500,300 1200,300" /><poly id="block_42" color="0.8,0.8,0.8" fill="1" shape="1200,300 1500,300 1500,600 1200,600" /><poly id="block_43" color="0.8,0.8,0.8" fill="1" shape="1200,600 1500,600 1500,900 1200,900" /><poly id="block_44" color="0.8,0.8,0.8" fill="1" shape="1200,900 1500,900 1500,1200 1200,1200" /><poly id="block_45" color="0.8,0.8,0.8" fill="1" shape="1200,1200 1500,1200 1500,1500 1200,1500" /><poly id="block_46" color="0.8,0.8,0.8" fill="1" shape="1200,1500 1500,1500 1500,1800 1200,1800" /><poly id="block_47" color="0.8,0.8,0.8" fill="1" shape="1200,1800 1500,1800 1500,2100 1200,2100" /><poly id="block_48" color="0.8,0.8,0.8" fill="1" shape="1200,2100 1500,2100 1500,2400 1200,2400" /><poly id="block_49" color="0.8,0.8,0.8" fill="1" shape="1200,2400 1500,2400 1500,2700 1200,2700" /><poly id="block_50" color="0.8,0.8,0.8" fill="1" shape="1200,2700 1500,2700 1500,3000 1200,3000" /><poly id="block_51" color="0.8,0.8,0.8" fill="1" shape="1500,0 1800,0 1800,300 1500,300" /><poly id="block_52" color="0.8,0.8,0.8" fill="1" shape="1500,300 1800,300 1800,600 1500,600" /><poly id="block_53" color="0.8,0.8,0.8" fill="1" shape="1500,600 1800,600 1800,900 1500,900" /><poly id="block_54" color="0.8,0.8,0.8" fill="1" shape="1500,900 1800,900 1800,1200 1500,1200" /><poly id="block_55" color="0.8,0.8,0.8" fill="1" shape="1500,1200 1800,1200 1800,1500 1500,1500" /><poly id="block_56" color="0.8,0.8,0.8" fill="1" shape="1500,1500 1800,1500 1800,1800 1500,1800" /><poly id="block_57" color="0.8,0.8,0.8" fill="1" shape="1500,1800 1800,1800 1800,2100 1500,2100" /><poly id="block_58" color="0.8,0.8,0.8" fill="1" shape="1500,2100 1800,2100 1800,2400 1500,2400" /><poly id="block_59" color="0.8,0.8,0.8" fill="1" shape="1500,2400 1800,2400 1800,2700 1500,2700" /><poly id="block_60" color="0.8,0.8,0.8" fill="1" shape="1500,2700 1800,2700 1800,3000 1500,3000" /><poly id="block_61" color="0.8,0.8,0.8" fill="1" shape="1800,0 2100,0 2100,300 1800,300" /><poly id="block_62" color="0.8,0.8,0.8" fill="1" shape="1800,300 2100,300 2100,600 1800,600" /><poly id="block_63" color="0.8,0.8,0.8" fill="1" shape="1800,600 2100,600 2100,900 1800,900" /><poly id="block_64" color="0.8,0.8,0.8" fill="1" shape="1800,900 2100,900 2100,1200 1800,1200" /><poly id="block_65" color="0.8,0.8,0.8" fill="1" shape="1800,1200 2100,1200 2100,1500 1800,1500" /><poly id="block_66" color="0.8,0.8,0.8" fill="1" shape="1800,1500 2100,1500 2100,1800 1800,1800" /><poly id="block_67" color="0.8,0.8,0.8" fill="1" shape="1800,1800 2100,1800 2100,2100 1800,2100" /><poly id="block_68" color="0.8,0.8,0.8" fill="1" shape="1800,2100 2100,2100 2100,2400 1800,2400" /><poly id="block_69" color="0.8,0.8,0.8" fill="1" shape="1800,2400 2100,2400 2100,2700 1800,2700" /><poly id="block_70" color="0.8,0.8,0.8" fill="1" shape="1800,2700 2100,2700 2100,3000 1800,3000" /><poly id="block_71" color="0.8,0.8,0.8" fill="1" shape="2100,0 2400,0 2400,300 2100,300" /><poly id="block_72" color="0.8,0.8,0.8" fill="1" shape="2100,300 2400,300 2400,600 2100,600" /><poly id="block_73" color="0.8,0.8,0.8" fill="1" shape="2100,600 2400,600 2400,900 2100,900" /><poly id="block_74" color="0.8,0.8,0.8" fill="1" shape="2100,900 2400,900 2400,1200 2100,1200" /><poly id="block_75" color="0.8,0.8,0.8" fill="1" shape="2100,1200 2400,1200 2400,1500 2100,1500" /><poly id="block_76" color="0.8,0.8,0.8" fill="1" shape="2100,1500 2400,1500 2400,1800 2100,1800" /><poly id="block_77" color="0.8,0.8,0.8" fill="1" shape="2100,1800 2400,1800 2400,2100 2100,2100" /><poly id="block_78" color="0.8,0.8,0.8" fill="1" shape="2100,2100 2400,2100 2400,2400 2100,2400" /><poly id="block_79" color="0.8,0.8,0.8" fill="1" shape="2100,2400 2400,2400 2400,2700 2100,2700" /><poly id="block_80" color="0.8,0.8,0.8" fill="1" shape="2100,2700 2400,2700 2400,3000 2100,3000" /><poly id="block_81" color="0.8,0.8,0.8" fill="1" shape="2400,0 2700,0 2700,300 2400,300" /><poly id="block_82" color="0.8,0.8,0.8" fill="1" shape="2400,300 2700,300 2700,600 2400,600" /><poly id="block_83" color="0.8,0.8,0.8" fill="1" shape="2400,600 2700,600 2700,900 2400,900" /><poly id="block_84" color="0.8,0.8,0.8" fill="1" shape="2400,900 2700,900 2700,1200 2400,1200" /><poly id="block_85" color="0.8,0.8,0.8" fill="1" shape="2400,1200 2700,1200 2700,1500 2400,1500" /><poly id="block_86" color="0.8,0.8,0.8" fill="1" shape="2400,1500 2700,1500 2700,1800 2400,1800" /><poly id="block_87" color="0.8,0.8,0.8" fill="1" shape="2400,1800 2700,1800 2700,2100 2400,2100" /><poly id="block_88" color="0.8,0.8,0.8" fill="1" shape="2400,2100 2700,2100 2700,2400 2400,2400" /><poly id="block_89" color="0.8,0.8,0.8" fill="1" shape="2400,2400 2700,2400 2700,2700 2400,2700" /><poly id="block_90" color="0.8,0.8,0.8" fill="1" shape="2400,2700 2700,2700 2700,3000 2400,3000" /><poly id="block_91" color="0.8,0.8,0.8" fill="1" shape="2700,0 3000,0 3000,300 2700,300" /><poly id="block_92" color="0.8,0.8,0.8" fill="1" shape="2700,300 3000,300 3000,600 2700,600" /><poly id="block_93" color="0.8,0.8,0.8" fill="1" shape="2700,600 3000,600 3000,900 2700,900" /><poly id="block_94" color="0.8,0.8,0.8" fill="1" shape="2700,900 3000,900 3000,1200 2700,1200" /><poly id="block_95" color="0.8,0.8,0.8" fill="1" shape="2700,1200 3000,1200 3000,1500 2700,1500" /><poly id="block_96" color="0.8,0.8,0.8" fill="1" shape="2700,1500 3000,1500 3000,1800 2700,1800" /><poly id="block_97" color="0.8,0.8,0.8" fill="1" shape="2700,1800 3000,1800 3000,2100 2700,2100" /><poly id="block_98" color="0.8,0.8,0.8" fill="1" shape="2700,2100 3000,2100 3000,2400 2700,2400" /><poly id="block_99" color="0.8,0.8,0.8" fill="1" shape="2700,2400 3000,2400 3000,2700 2700,2700" /><poly id="block_100" color="0.8,0.8,0.8" fill="1" shape="2700,2700 3000,2700 3000,3000 2700,3000" /></additional>