<?xml version="1.0" encoding="UTF-8"?>

<!-- generated on 2025-05-10 16:35:50 by Eclipse SUMO duarouter Version 1.11.0
<configuration xmlns:xsi="http://www.w3.org/2001/XMLSchema-instance" xsi:noNamespaceSchemaLocation="http://sumo.dlr.de/xsd/duarouterConfiguration.xsd">

    <input>
        <net-file value="grid_random_speed.net.xml"/>
        <route-files value="grid.rou.xml"/>
    </input>

    <output>
        <output-file value="grid.rou.xml.tmp"/>
        <write-trips value="true"/>
    </output>

    <time>
        <begin value="0"/>
        <end value="1000"/>
    </time>

    <report>
        <no-warnings value="true"/>
        <ignore-errors value="true"/>
        <no-step-log value="true"/>
    </report>

</configuration>
-->

<routes xmlns:xsi="http://www.w3.org/2001/XMLSchema-instance" xsi:noNamespaceSchemaLocation="http://sumo.dlr.de/xsd/routes_file.xsd">
    <vType id="passenger" vClass="passenger"/>
    <trip id="0" type="passenger" depart="0.00" from="G9G8" to="A3A4"/>
    <trip id="1" type="passenger" depart="1.00" from="D1C1" to="C5D5"/>
    <trip id="2" type="passenger" depart="2.00" from="H9I9" to="H3G3"/>
    <trip id="3" type="passenger" depart="3.00" from="J5K5" to="B1B0"/>
    <trip id="4" type="passenger" depart="4.00" from="E6E7" to="A4A3"/>
    <trip id="5" type="passenger" depart="5.00" from="C5C4" to="F5F4"/>
    <trip id="6" type="passenger" depart="6.00" from="A3A4" to="C3B3"/>
    <trip id="7" type="passenger" depart="7.00" from="H0I0" to="F9F8"/>
    <trip id="8" type="passenger" depart="8.00" from="C5C4" to="G4F4"/>
    <trip id="9" type="passenger" depart="9.00" from="I7I6" to="A10A9"/>
    <trip id="10" type="passenger" depart="10.00" from="I6J6" to="H5H6"/>
    <trip id="11" type="passenger" depart="11.00" from="D8C8" to="B8C8"/>
    <trip id="12" type="passenger" depart="12.00" from="K3K4" to="D7E7"/>
    <trip id="13" type="passenger" depart="13.00" from="B1C1" to="B2B1"/>
    <trip id="14" type="passenger" depart="14.00" from="J10K10" to="G5G6"/>
    <trip id="15" type="passenger" depart="15.00" from="I7H7" to="H9G9"/>
    <trip id="16" type="passenger" depart="16.00" from="F8F9" to="K6J6"/>
    <trip id="17" type="passenger" depart="17.00" from="E1F1" to="G0G1"/>
    <trip id="18" type="passenger" depart="18.00" from="I9I10" to="G7G6"/>
    <trip id="19" type="passenger" depart="19.00" from="J2J3" to="G2H2"/>
    <trip id="20" type="passenger" depart="20.00" from="H6H5" to="A6A7"/>
    <trip id="21" type="passenger" depart="21.00" from="C6C5" to="D2D3"/>
    <trip id="22" type="passenger" depart="22.00" from="B10B9" to="C6D6"/>
    <trip id="23" type="passenger" depart="23.00" from="B2C2" to="D1D0"/>
    <trip id="24" type="passenger" depart="24.00" from="G9F9" to="E10D10"/>
    <trip id="25" type="passenger" depart="25.00" from="E10F10" to="C4C3"/>
    <trip id="26" type="passenger" depart="26.00" from="D0E0" to="K10K9"/>
    <trip id="27" type="passenger" depart="27.00" from="H0I0" to="G6G5"/>
    <trip id="28" type="passenger" depart="28.00" from="C0D0" to="H8I8"/>
    <trip id="29" type="passenger" depart="29.00" from="B9B8" to="E1F1"/>
    <trip id="30" type="passenger" depart="30.00" from="K8K7" to="G9G8"/>
    <trip id="31" type="passenger" depart="31.00" from="G10G9" to="H4G4"/>
    <trip id="32" type="passenger" depart="32.00" from="J10I10" to="I3I4"/>
    <trip id="33" type="passenger" depart="33.00" from="C6C5" to="A4A5"/>
    <trip id="34" type="passenger" depart="34.00" from="D5D4" to="D0E0"/>
    <trip id="35" type="passenger" depart="35.00" from="C4C3" to="K1K0"/>
    <trip id="36" type="passenger" depart="36.00" from="J4I4" to="D5D4"/>
    <trip id="37" type="passenger" depart="37.00" from="H10I10" to="E3F3"/>
    <trip id="38" type="passenger" depart="38.00" from="J8J7" to="F0G0"/>
    <trip id="39" type="passenger" depart="39.00" from="D0D1" to="C8C7"/>
    <trip id="40" type="passenger" depart="40.00" from="G1F1" to="D0C0"/>
    <trip id="41" type="passenger" depart="41.00" from="G3G4" to="J6J7"/>
    <trip id="42" type="passenger" depart="42.00" from="E4D4" to="C5C4"/>
    <trip id="43" type="passenger" depart="43.00" from="K9K10" to="F5G5"/>
    <trip id="44" type="passenger" depart="44.00" from="B1C1" to="A6A7"/>
    <trip id="45" type="passenger" depart="45.00" from="B3C3" to="G8G7"/>
    <trip id="46" type="passenger" depart="46.00" from="I5I4" to="E6E7"/>
    <trip id="47" type="passenger" depart="47.00" from="A8B8" to="E2D2"/>
    <trip id="48" type="passenger" depart="48.00" from="K9K10" to="F7G7"/>
    <trip id="49" type="passenger" depart="49.00" from="K5K6" to="J2J1"/>
    <trip id="50" type="passenger" depart="50.00" from="A1A2" to="H8G8"/>
    <trip id="51" type="passenger" depart="51.00" from="H3H4" to="F8G8"/>
    <trip id="52" type="passenger" depart="52.00" from="D0E0" to="G9H9"/>
    <trip id="53" type="passenger" depart="53.00" from="B4A4" to="E8D8"/>
    <trip id="54" type="passenger" depart="54.00" from="F0E0" to="K3J3"/>
    <trip id="55" type="passenger" depart="55.00" from="J4I4" to="D0C0"/>
    <trip id="56" type="passenger" depart="56.00" from="F4G4" to="C10D10"/>
    <trip id="57" type="passenger" depart="57.00" from="J8I8" to="J3J4"/>
    <trip id="58" type="passenger" depart="58.00" from="D3D4" to="G9G8"/>
    <trip id="59" type="passenger" depart="59.00" from="G6F6" to="B8B9"/>
    <trip id="60" type="passenger" depart="60.00" from="I2H2" to="F9E9"/>
    <trip id="61" type="passenger" depart="61.00" from="I3J3" to="F8E8"/>
    <trip id="62" type="passenger" depart="62.00" from="A0A1" to="D6D5"/>
    <trip id="63" type="passenger" depart="63.00" from="A2A3" to="J9K9"/>
    <trip id="64" type="passenger" depart="64.00" from="J4J3" to="I9I8"/>
    <trip id="65" type="passenger" depart="65.00" from="D4D5" to="A8A7"/>
    <trip id="66" type="passenger" depart="66.00" from="J4J3" to="K2J2"/>
    <trip id="67" type="passenger" depart="67.00" from="B1A1" to="F3E3"/>
    <trip id="68" type="passenger" depart="68.00" from="A9B9" to="I1J1"/>
    <trip id="69" type="passenger" depart="69.00" from="I2I1" to="B5C5"/>
    <trip id="70" type="passenger" depart="70.00" from="F2E2" to="G0F0"/>
    <trip id="71" type="passenger" depart="71.00" from="D0D1" to="J3J4"/>
    <trip id="72" type="passenger" depart="72.00" from="E6F6" to="C4C5"/>
    <trip id="73" type="passenger" depart="73.00" from="F9E9" to="H9G9"/>
    <trip id="74" type="passenger" depart="74.00" from="C3C2" to="D5C5"/>
    <trip id="75" type="passenger" depart="75.00" from="K9J9" to="H0I0"/>
    <trip id="76" type="passenger" depart="76.00" from="E8E7" to="F6F7"/>
    <trip id="77" type="passenger" depart="77.00" from="B5A5" to="C5D5"/>
    <trip id="78" type="passenger" depart="78.00" from="D7E7" to="G3H3"/>
    <trip id="79" type="passenger" depart="79.00" from="C6C7" to="C5C4"/>
    <trip id="80" type="passenger" depart="80.00" from="B0A0" to="G8G9"/>
    <trip id="81" type="passenger" depart="81.00" from="C6C5" to="J7J6"/>
    <trip id="82" type="passenger" depart="82.00" from="J2J1" to="B0A0"/>
    <trip id="83" type="passenger" depart="83.00" from="C7C6" to="H2H1"/>
    <trip id="84" type="passenger" depart="84.00" from="C4D4" to="B6B5"/>
    <trip id="85" type="passenger" depart="85.00" from="K10J10" to="G2F2"/>
    <trip id="86" type="passenger" depart="86.00" from="F1F2" to="I4I5"/>
    <trip id="87" type="passenger" depart="87.00" from="I7H7" to="C2B2"/>
    <trip id="88" type="passenger" depart="88.00" from="B2B1" to="E7E8"/>
    <trip id="89" type="passenger" depart="89.00" from="E6F6" to="F1E1"/>
    <trip id="90" type="passenger" depart="90.00" from="H8I8" to="H2I2"/>
    <trip id="91" type="passenger" depart="91.00" from="K7K8" to="B2B3"/>
    <trip id="92" type="passenger" depart="92.00" from="E4E5" to="D8C8"/>
    <trip id="93" type="passenger" depart="93.00" from="J2J3" to="C8C9"/>
    <trip id="94" type="passenger" depart="94.00" from="C2B2" to="E9E8"/>
    <trip id="95" type="passenger" depart="95.00" from="E6E7" to="D1D0"/>
    <trip id="96" type="passenger" depart="96.00" from="C8C9" to="J9J10"/>
    <trip id="97" type="passenger" depart="97.00" from="E8F8" to="J2J1"/>
    <trip id="98" type="passenger" depart="98.00" from="G0G1" to="A7A6"/>
    <trip id="99" type="passenger" depart="99.00" from="K9K8" to="J0I0"/>
    <trip id="100" type="passenger" depart="100.00" from="K5K4" to="J9J8"/>
    <trip id="101" type="passenger" depart="101.00" from="J1I1" to="C0B0"/>
    <trip id="102" type="passenger" depart="102.00" from="F3E3" to="C4D4"/>
    <trip id="103" type="passenger" depart="103.00" from="E4E3" to="A8A7"/>
    <trip id="104" type="passenger" depart="104.00" from="E1F1" to="K7K8"/>
    <trip id="105" type="passenger" depart="105.00" from="D0D1" to="I4I3"/>
    <trip id="106" type="passenger" depart="106.00" from="F0F1" to="E6F6"/>
    <trip id="107" type="passenger" depart="107.00" from="K3K4" to="K9J9"/>
    <trip id="108" type="passenger" depart="108.00" from="G10F10" to="H7I7"/>
    <trip id="109" type="passenger" depart="109.00" from="B8C8" to="D3D2"/>
    <trip id="110" type="passenger" depart="110.00" from="K5K4" to="G2H2"/>
    <trip id="111" type="passenger" depart="111.00" from="F9F10" to="I10I9"/>
    <trip id="112" type="passenger" depart="112.00" from="A8A7" to="G3G4"/>
    <trip id="113" type="passenger" depart="113.00" from="F5E5" to="J1J2"/>
    <trip id="114" type="passenger" depart="114.00" from="B9A9" to="K4J4"/>
    <trip id="115" type="passenger" depart="115.00" from="B10B9" to="C1C2"/>
    <trip id="116" type="passenger" depart="116.00" from="G4G5" to="H3G3"/>
    <trip id="117" type="passenger" depart="117.00" from="C7B7" to="B4C4"/>
    <trip id="118" type="passenger" depart="118.00" from="J5J6" to="C8C7"/>
    <trip id="119" type="passenger" depart="119.00" from="G4G5" to="G7G6"/>
    <trip id="120" type="passenger" depart="120.00" from="E6E5" to="G3G2"/>
    <trip id="121" type="passenger" depart="121.00" from="F7F6" to="K10J10"/>
    <trip id="122" type="passenger" depart="122.00" from="C3C4" to="H7H8"/>
    <trip id="123" type="passenger" depart="123.00" from="C7C8" to="E3F3"/>
    <trip id="124" type="passenger" depart="124.00" from="H2H3" to="D3D4"/>
    <trip id="125" type="passenger" depart="125.00" from="D5D6" to="I10J10"/>
    <trip id="126" type="passenger" depart="126.00" from="B0A0" to="F0G0"/>
    <trip id="127" type="passenger" depart="127.00" from="K9K8" to="K9K10"/>
    <trip id="128" type="passenger" depart="128.00" from="B0B1" to="C4C5"/>
    <trip id="129" type="passenger" depart="129.00" from="D0D1" to="K0K1"/>
    <trip id="130" type="passenger" depart="130.00" from="J4J5" to="J4J3"/>
    <trip id="131" type="passenger" depart="131.00" from="E10F10" to="B9A9"/>
    <trip id="132" type="passenger" depart="132.00" from="I9J9" to="H6G6"/>
    <trip id="133" type="passenger" depart="133.00" from="G6G7" to="K8J8"/>
    <trip id="134" type="passenger" depart="134.00" from="H10H9" to="A10B10"/>
    <trip id="135" type="passenger" depart="135.00" from="I8H8" to="D3D4"/>
    <trip id="136" type="passenger" depart="136.00" from="H1H2" to="K1J1"/>
    <trip id="137" type="passenger" depart="137.00" from="B6B7" to="B4B3"/>
    <trip id="138" type="passenger" depart="138.00" from="B3B4" to="G0H0"/>
    <trip id="139" type="passenger" depart="139.00" from="D10D9" to="G5H5"/>
    <trip id="140" type="passenger" depart="140.00" from="H7H8" to="C3C4"/>
    <trip id="141" type="passenger" depart="141.00" from="G9F9" to="D0D1"/>
    <trip id="142" type="passenger" depart="142.00" from="F3F2" to="J7J6"/>
    <trip id="143" type="passenger" depart="143.00" from="J10K10" to="B1C1"/>
    <trip id="144" type="passenger" depart="144.00" from="E6F6" to="D1C1"/>
    <trip id="145" type="passenger" depart="145.00" from="A0B0" to="I3H3"/>
    <trip id="146" type="passenger" depart="146.00" from="G9G10" to="D0C0"/>
    <trip id="147" type="passenger" depart="147.00" from="I0I1" to="G0G1"/>
    <trip id="148" type="passenger" depart="148.00" from="E7E6" to="A1A0"/>
    <trip id="149" type="passenger" depart="149.00" from="B0C0" to="J4K4"/>
    <trip id="150" type="passenger" depart="150.00" from="J7I7" to="F9G9"/>
    <trip id="151" type="passenger" depart="151.00" from="J0I0" to="G3G2"/>
    <trip id="152" type="passenger" depart="152.00" from="B8A8" to="B5C5"/>
    <trip id="153" type="passenger" depart="153.00" from="D4D5" to="J6J7"/>
    <trip id="154" type="passenger" depart="154.00" from="I5J5" to="J2J1"/>
    <trip id="155" type="passenger" depart="155.00" from="J6J7" to="C4C3"/>
    <trip id="156" type="passenger" depart="156.00" from="C8C9" to="B3A3"/>
    <trip id="157" type="passenger" depart="157.00" from="I4H4" to="J5I5"/>
    <trip id="158" type="passenger" depart="158.00" from="E4F4" to="G7G8"/>
    <trip id="159" type="passenger" depart="159.00" from="B8C8" to="K0J0"/>
    <trip id="160" type="passenger" depart="160.00" from="J2K2" to="K6K5"/>
    <trip id="161" type="passenger" depart="161.00" from="I7I6" to="J4J5"/>
    <trip id="162" type="passenger" depart="162.00" from="A3A2" to="H9I9"/>
    <trip id="163" type="passenger" depart="163.00" from="D7D6" to="K0J0"/>
    <trip id="164" type="passenger" depart="164.00" from="I6I5" to="J2K2"/>
    <trip id="165" type="passenger" depart="165.00" from="I7I6" to="D0E0"/>
    <trip id="166" type="passenger" depart="166.00" from="I4J4" to="B3B4"/>
    <trip id="167" type="passenger" depart="167.00" from="J3J4" to="J2I2"/>
    <trip id="168" type="passenger" depart="168.00" from="C5C6" to="I8H8"/>
    <trip id="169" type="passenger" depart="169.00" from="F10E10" to="D4D3"/>
    <trip id="170" type="passenger" depart="170.00" from="I5I6" to="C6C5"/>
    <trip id="171" type="passenger" depart="171.00" from="A3A2" to="C2C1"/>
    <trip id="172" type="passenger" depart="172.00" from="D6E6" to="J2K2"/>
    <trip id="173" type="passenger" depart="173.00" from="K5J5" to="D1D0"/>
    <trip id="174" type="passenger" depart="174.00" from="G9H9" to="E4D4"/>
    <trip id="175" type="passenger" depart="175.00" from="K7J7" to="F8F9"/>
    <trip id="176" type="passenger" depart="176.00" from="K1J1" to="B4B3"/>
    <trip id="177" type="passenger" depart="177.00" from="K5K4" to="C10D10"/>
    <trip id="178" type="passenger" depart="178.00" from="K4K3" to="D0D1"/>
    <trip id="179" type="passenger" depart="179.00" from="B3B4" to="E8D8"/>
    <trip id="180" type="passenger" depart="180.00" from="H8I8" to="D5D4"/>
    <trip id="181" type="passenger" depart="181.00" from="G5H5" to="F6E6"/>
    <trip id="182" type="passenger" depart="182.00" from="E2E3" to="G2G3"/>
    <trip id="183" type="passenger" depart="183.00" from="C9C10" to="H6H7"/>
    <trip id="184" type="passenger" depart="184.00" from="A0A1" to="J9J8"/>
    <trip id="185" type="passenger" depart="185.00" from="F8G8" to="H7I7"/>
    <trip id="186" type="passenger" depart="186.00" from="I0I1" to="H2H3"/>
    <trip id="187" type="passenger" depart="187.00" from="E10D10" to="A9B9"/>
    <trip id="188" type="passenger" depart="188.00" from="H1I1" to="D7C7"/>
    <trip id="189" type="passenger" depart="189.00" from="D5D4" to="J1I1"/>
    <trip id="190" type="passenger" depart="190.00" from="H7I7" to="D3E3"/>
    <trip id="191" type="passenger" depart="191.00" from="D4E4" to="E5D5"/>
    <trip id="192" type="passenger" depart="192.00" from="E4E5" to="D3D2"/>
    <trip id="193" type="passenger" depart="193.00" from="B5C5" to="E6E5"/>
    <trip id="194" type="passenger" depart="194.00" from="K1J1" to="H3H2"/>
    <trip id="195" type="passenger" depart="195.00" from="J7I7" to="G6H6"/>
    <trip id="196" type="passenger" depart="196.00" from="D3E3" to="G0F0"/>
    <trip id="197" type="passenger" depart="197.00" from="A0A1" to="D2D1"/>
    <trip id="198" type="passenger" depart="198.00" from="E7E8" to="G3F3"/>
    <trip id="199" type="passenger" depart="199.00" from="H10I10" to="F10G10"/>
    <trip id="200" type="passenger" depart="200.00" from="E8F8" to="C4D4"/>
    <trip id="201" type="passenger" depart="201.00" from="F1G1" to="J6K6"/>
    <trip id="202" type="passenger" depart="202.00" from="I5J5" to="C0C1"/>
    <trip id="203" type="passenger" depart="203.00" from="B1A1" to="F6F5"/>
    <trip id="204" type="passenger" depart="204.00" from="G8H8" to="D7D8"/>
    <trip id="205" type="passenger" depart="205.00" from="I8I7" to="I10J10"/>
    <trip id="206" type="passenger" depart="206.00" from="H2I2" to="C5D5"/>
    <trip id="207" type="passenger" depart="207.00" from="C3B3" to="A3A2"/>
    <trip id="208" type="passenger" depart="208.00" from="C8B8" to="F2E2"/>
    <trip id="209" type="passenger" depart="209.00" from="J1I1" to="B0B1"/>
    <trip id="210" type="passenger" depart="210.00" from="E5F5" to="G8G9"/>
    <trip id="211" type="passenger" depart="211.00" from="C2C3" to="H5H4"/>
    <trip id="212" type="passenger" depart="212.00" from="F4E4" to="C8B8"/>
    <trip id="213" type="passenger" depart="213.00" from="H10I10" to="A10A9"/>
    <trip id="214" type="passenger" depart="214.00" from="I10J10" to="I2J2"/>
    <trip id="215" type="passenger" depart="215.00" from="B3B2" to="E7D7"/>
    <trip id="216" type="passenger" depart="216.00" from="C10C9" to="K3K4"/>
    <trip id="217" type="passenger" depart="217.00" from="F6F7" to="A7A6"/>
    <trip id="218" type="passenger" depart="218.00" from="C8C9" to="J1I1"/>
    <trip id="219" type="passenger" depart="219.00" from="F0F1" to="I6I5"/>
    <trip id="220" type="passenger" depart="220.00" from="H2G2" to="K8J8"/>
    <trip id="221" type="passenger" depart="221.00" from="G4G5" to="K2K3"/>
    <trip id="222" type="passenger" depart="222.00" from="J5K5" to="G6G7"/>
    <trip id="223" type="passenger" depart="223.00" from="H7I7" to="F5F4"/>
    <trip id="224" type="passenger" depart="224.00" from="I9I8" to="G0F0"/>
    <trip id="225" type="passenger" depart="225.00" from="J6J5" to="I0J0"/>
    <trip id="226" type="passenger" depart="226.00" from="F1G1" to="C9D9"/>
    <trip id="227" type="passenger" depart="227.00" from="C8C7" to="G9G10"/>
    <trip id="228" type="passenger" depart="228.00" from="I2I1" to="F7E7"/>
    <trip id="229" type="passenger" depart="229.00" from="G8F8" to="D10E10"/>
    <trip id="230" type="passenger" depart="230.00" from="B10A10" to="D2C2"/>
    <trip id="231" type="passenger" depart="231.00" from="D10D9" to="D5E5"/>
    <trip id="232" type="passenger" depart="232.00" from="F9E9" to="B6C6"/>
    <trip id="233" type="passenger" depart="233.00" from="C6C7" to="H5G5"/>
    <trip id="234" type="passenger" depart="234.00" from="H6H5" to="A9A10"/>
    <trip id="235" type="passenger" depart="235.00" from="E5D5" to="F9F10"/>
    <trip id="236" type="passenger" depart="236.00" from="E5F5" to="C4B4"/>
    <trip id="237" type="passenger" depart="237.00" from="E6E5" to="J7J6"/>
    <trip id="238" type="passenger" depart="238.00" from="G3G2" to="H5H4"/>
    <trip id="239" type="passenger" depart="239.00" from="J1K1" to="I2I1"/>
    <trip id="240" type="passenger" depart="240.00" from="E2D2" to="A10A9"/>
    <trip id="241" type="passenger" depart="241.00" from="D9D10" to="I1H1"/>
    <trip id="242" type="passenger" depart="242.00" from="J1J2" to="K3J3"/>
    <trip id="243" type="passenger" depart="243.00" from="E6E5" to="I10H10"/>
    <trip id="244" type="passenger" depart="244.00" from="F9G9" to="G5G6"/>
    <trip id="245" type="passenger" depart="245.00" from="C5C6" to="C5C4"/>
    <trip id="246" type="passenger" depart="246.00" from="E8D8" to="A3B3"/>
    <trip id="247" type="passenger" depart="247.00" from="D7D8" to="H3H2"/>
    <trip id="248" type="passenger" depart="248.00" from="E4E5" to="B9C9"/>
    <trip id="249" type="passenger" depart="249.00" from="F1E1" to="B5C5"/>
    <trip id="250" type="passenger" depart="250.00" from="G7G8" to="A3A4"/>
    <trip id="251" type="passenger" depart="251.00" from="E3E4" to="G1G0"/>
    <trip id="252" type="passenger" depart="252.00" from="A3A4" to="G9H9"/>
    <trip id="253" type="passenger" depart="253.00" from="B6B7" to="F10F9"/>
    <trip id="254" type="passenger" depart="254.00" from="A7A6" to="E1F1"/>
    <trip id="255" type="passenger" depart="255.00" from="C4C5" to="D6D7"/>
    <trip id="256" type="passenger" depart="256.00" from="I1J1" to="E1F1"/>
    <trip id="257" type="passenger" depart="257.00" from="I10J10" to="I9J9"/>
    <trip id="258" type="passenger" depart="258.00" from="C8D8" to="B10C10"/>
    <trip id="259" type="passenger" depart="259.00" from="A2A3" to="F9E9"/>
    <trip id="260" type="passenger" depart="260.00" from="K9K8" to="D9C9"/>
    <trip id="261" type="passenger" depart="261.00" from="H10G10" to="I4H4"/>
    <trip id="262" type="passenger" depart="262.00" from="H10G10" to="I1H1"/>
    <trip id="263" type="passenger" depart="263.00" from="K2K1" to="C3B3"/>
    <trip id="264" type="passenger" depart="264.00" from="A2A3" to="B8B9"/>
    <trip id="265" type="passenger" depart="265.00" from="B5B6" to="H2H1"/>
    <trip id="266" type="passenger" depart="266.00" from="G1G0" to="C5B5"/>
    <trip id="267" type="passenger" depart="267.00" from="H5H6" to="I2I3"/>
    <trip id="268" type="passenger" depart="268.00" from="C0B0" to="G6F6"/>
    <trip id="269" type="passenger" depart="269.00" from="I10I9" to="B4B3"/>
    <trip id="270" type="passenger" depart="270.00" from="I8I7" to="K4K5"/>
    <trip id="271" type="passenger" depart="271.00" from="B3B4" to="A3A4"/>
    <trip id="272" type="passenger" depart="272.00" from="D5C5" to="H3H2"/>
    <trip id="273" type="passenger" depart="273.00" from="K3K4" to="E3F3"/>
    <trip id="274" type="passenger" depart="274.00" from="H7H6" to="B0C0"/>
    <trip id="275" type="passenger" depart="275.00" from="H4H5" to="G8F8"/>
    <trip id="276" type="passenger" depart="276.00" from="B2C2" to="I3H3"/>
    <trip id="277" type="passenger" depart="277.00" from="J1J0" to="G5G4"/>
    <trip id="278" type="passenger" depart="278.00" from="B5A5" to="K7K6"/>
    <trip id="279" type="passenger" depart="279.00" from="I4I3" to="D8E8"/>
    <trip id="280" type="passenger" depart="280.00" from="E7E6" to="E1D1"/>
    <trip id="281" type="passenger" depart="281.00" from="F5F4" to="D8D7"/>
    <trip id="282" type="passenger" depart="282.00" from="J1I1" to="I8I9"/>
    <trip id="283" type="passenger" depart="283.00" from="B3B2" to="K4J4"/>
    <trip id="284" type="passenger" depart="284.00" from="G9F9" to="I9I10"/>
    <trip id="285" type="passenger" depart="285.00" from="H6H7" to="E8D8"/>
    <trip id="286" type="passenger" depart="286.00" from="H9H10" to="K4K5"/>
    <trip id="287" type="passenger" depart="287.00" from="D10C10" to="I7H7"/>
    <trip id="288" type="passenger" depart="288.00" from="F8G8" to="F2G2"/>
    <trip id="289" type="passenger" depart="289.00" from="E8D8" to="H9G9"/>
    <trip id="290" type="passenger" depart="290.00" from="D10C10" to="J1J0"/>
    <trip id="291" type="passenger" depart="291.00" from="I9I8" to="B1B0"/>
    <trip id="292" type="passenger" depart="292.00" from="J4J5" to="C8B8"/>
    <trip id="293" type="passenger" depart="293.00" from="F10G10" to="G6G5"/>
    <trip id="294" type="passenger" depart="294.00" from="E1F1" to="A3B3"/>
    <trip id="295" type="passenger" depart="295.00" from="J1J0" to="C1C0"/>
    <trip id="296" type="passenger" depart="296.00" from="C4C5" to="I6H6"/>
    <trip id="297" type="passenger" depart="297.00" from="D8C8" to="J4J5"/>
    <trip id="298" type="passenger" depart="298.00" from="H5I5" to="D1C1"/>
    <trip id="299" type="passenger" depart="299.00" from="A1A0" to="K2K1"/>
    <trip id="300" type="passenger" depart="300.00" from="B1A1" to="H7I7"/>
    <trip id="301" type="passenger" depart="301.00" from="F3F2" to="I1I2"/>
    <trip id="302" type="passenger" depart="302.00" from="H4H5" to="H0H1"/>
    <trip id="303" type="passenger" depart="303.00" from="F3F4" to="I5I4"/>
    <trip id="304" type="passenger" depart="304.00" from="B1C1" to="C5C6"/>
    <trip id="305" type="passenger" depart="305.00" from="H4I4" to="D4D3"/>
    <trip id="306" type="passenger" depart="306.00" from="G3F3" to="F1G1"/>
    <trip id="307" type="passenger" depart="307.00" from="F8E8" to="E7D7"/>
    <trip id="308" type="passenger" depart="308.00" from="I10H10" to="D7C7"/>
    <trip id="309" type="passenger" depart="309.00" from="H6G6" to="D10D9"/>
    <trip id="310" type="passenger" depart="310.00" from="C8D8" to="B5A5"/>
    <trip id="311" type="passenger" depart="311.00" from="C2C1" to="B4C4"/>
    <trip id="312" type="passenger" depart="312.00" from="F8F9" to="I2H2"/>
    <trip id="313" type="passenger" depart="313.00" from="C1C2" to="C5B5"/>
    <trip id="314" type="passenger" depart="314.00" from="F3E3" to="H8H7"/>
    <trip id="315" type="passenger" depart="315.00" from="K6K5" to="F7F6"/>
    <trip id="316" type="passenger" depart="316.00" from="D1E1" to="B2C2"/>
    <trip id="317" type="passenger" depart="317.00" from="C2C3" to="C6C5"/>
    <trip id="318" type="passenger" depart="318.00" from="C10D10" to="A1B1"/>
    <trip id="319" type="passenger" depart="319.00" from="F8F9" to="D10E10"/>
    <trip id="320" type="passenger" depart="320.00" from="K6J6" to="G0H0"/>
    <trip id="321" type="passenger" depart="321.00" from="H5H4" to="B5B6"/>
    <trip id="322" type="passenger" depart="322.00" from="J3J2" to="F3F4"/>
    <trip id="323" type="passenger" depart="323.00" from="J3J4" to="G2G1"/>
    <trip id="324" type="passenger" depart="324.00" from="F1F0" to="E8E9"/>
    <trip id="325" type="passenger" depart="325.00" from="C1C2" to="A7A6"/>
    <trip id="326" type="passenger" depart="326.00" from="K1K0" to="F2F1"/>
    <trip id="327" type="passenger" depart="327.00" from="I8I9" to="E4E3"/>
    <trip id="328" type="passenger" depart="328.00" from="B0B1" to="G8G7"/>
    <trip id="329" type="passenger" depart="329.00" from="A7A8" to="B8A8"/>
    <trip id="330" type="passenger" depart="330.00" from="G1F1" to="D4C4"/>
    <trip id="331" type="passenger" depart="331.00" from="K9J9" to="B4C4"/>
    <trip id="332" type="passenger" depart="332.00" from="I2I1" to="G5H5"/>
    <trip id="333" type="passenger" depart="333.00" from="I5H5" to="C6B6"/>
    <trip id="334" type="passenger" depart="334.00" from="F7E7" to="E9F9"/>
    <trip id="335" type="passenger" depart="335.00" from="E8F8" to="J2J1"/>
    <trip id="336" type="passenger" depart="336.00" from="K8K7" to="D4D3"/>
    <trip id="337" type="passenger" depart="337.00" from="G7G8" to="G6G5"/>
    <trip id="338" type="passenger" depart="338.00" from="I0H0" to="K2J2"/>
    <trip id="339" type="passenger" depart="339.00" from="C4B4" to="C4C3"/>
    <trip id="340" type="passenger" depart="340.00" from="H1H0" to="B9A9"/>
    <trip id="341" type="passenger" depart="341.00" from="C10B10" to="B0C0"/>
    <trip id="342" type="passenger" depart="342.00" from="A0B0" to="E9F9"/>
    <trip id="343" type="passenger" depart="343.00" from="G4G5" to="D2E2"/>
    <trip id="344" type="passenger" depart="344.00" from="C6C7" to="H6H7"/>
    <trip id="345" type="passenger" depart="345.00" from="H6G6" to="F0E0"/>
    <trip id="346" type="passenger" depart="346.00" from="H4H3" to="J9J10"/>
    <trip id="347" type="passenger" depart="347.00" from="I4J4" to="G8F8"/>
    <trip id="348" type="passenger" depart="348.00" from="H1H0" to="K0K1"/>
    <trip id="349" type="passenger" depart="349.00" from="E7D7" to="F9F8"/>
    <trip id="350" type="passenger" depart="350.00" from="H0H1" to="J7J8"/>
    <trip id="351" type="passenger" depart="351.00" from="I9H9" to="B0A0"/>
    <trip id="352" type="passenger" depart="352.00" from="C0B0" to="D4D5"/>
    <trip id="353" type="passenger" depart="353.00" from="I10I9" to="G1H1"/>
    <trip id="354" type="passenger" depart="354.00" from="D2D1" to="B5B4"/>
    <trip id="355" type="passenger" depart="355.00" from="H4H5" to="H5H6"/>
    <trip id="356" type="passenger" depart="356.00" from="K1K0" to="F4G4"/>
    <trip id="357" type="passenger" depart="357.00" from="F4E4" to="B10B9"/>
    <trip id="358" type="passenger" depart="358.00" from="A5A6" to="E7F7"/>
    <trip id="359" type="passenger" depart="359.00" from="D6C6" to="C8D8"/>
    <trip id="360" type="passenger" depart="360.00" from="B1C1" to="K4K3"/>
    <trip id="361" type="passenger" depart="361.00" from="J0I0" to="G2G3"/>
    <trip id="362" type="passenger" depart="362.00" from="K2K3" to="K9K8"/>
    <trip id="363" type="passenger" depart="363.00" from="H2H3" to="D10C10"/>
    <trip id="364" type="passenger" depart="364.00" from="A5A6" to="I1I0"/>
    <trip id="365" type="passenger" depart="365.00" from="F1F2" to="H10G10"/>
    <trip id="366" type="passenger" depart="366.00" from="J8J9" to="C1B1"/>
    <trip id="367" type="passenger" depart="367.00" from="G3G4" to="G9F9"/>
    <trip id="368" type="passenger" depart="368.00" from="F3G3" to="B1C1"/>
    <trip id="369" type="passenger" depart="369.00" from="D9C9" to="D7D6"/>
    <trip id="370" type="passenger" depart="370.00" from="H2H1" to="J2I2"/>
    <trip id="371" type="passenger" depart="371.00" from="D7C7" to="H5G5"/>
    <trip id="372" type="passenger" depart="372.00" from="D2D1" to="K1K2"/>
    <trip id="373" type="passenger" depart="373.00" from="I7I8" to="G0G1"/>
    <trip id="374" type="passenger" depart="374.00" from="F0F1" to="D5D4"/>
    <trip id="375" type="passenger" depart="375.00" from="D6D5" to="K5K4"/>
    <trip id="376" type="passenger" depart="376.00" from="E4E5" to="F6F5"/>
    <trip id="377" type="passenger" depart="377.00" from="K8J8" to="H1G1"/>
    <trip id="378" type="passenger" depart="378.00" from="F9F10" to="E5E6"/>
    <trip id="379" type="passenger" depart="379.00" from="C1D1" to="E0F0"/>
    <trip id="380" type="passenger" depart="380.00" from="I1I0" to="G8F8"/>
    <trip id="381" type="passenger" depart="381.00" from="I1J1" to="C3C4"/>
    <trip id="382" type="passenger" depart="382.00" from="G0F0" to="J9K9"/>
    <trip id="383" type="passenger" depart="383.00" from="E8E7" to="H5H6"/>