[General]
network = Grid3000Scenario

##########################################################
#            Simulation parameters                       #
##########################################################
sim-time-limit = 300s
simtime-resolution = ps
*.playgroundSizeX = 3000m
*.playgroundSizeY = 3000m
*.playgroundSizeZ = 50m

##########################################################
# Annotation parameters                                  #
##########################################################

##########################################################
# Obstacle parameters                                    #
##########################################################
*.obstacles.obstacles = xmldoc("grid3000.poly.xml")
##*.obstacles.obstacles = xmldoc("config.xml", "//AnalogueModel[@type='SimpleObstacleShadowing']/obstacles")

##########################################################
#            TraCIScenarioManager parameters             #
##########################################################
*.manager.updateInterval = 1s
*.manager.host = "localhost"
*.manager.port = 9999
*.manager.launchConfig = xmldoc("grid3000.launchd.xml")
*.manager.autoShutdown = true

##########################################################
#                       RADAR SETTINGS                     #
##########################################################

##########################################################
#            11p specific parameters                     #
#                    NIC-Settings                        #
##########################################################
*.connectionManager.sendDirect = true
*.connectionManager.maxInterfDist = 2600m
*.connectionManager.drawMaxIntfDist = false

*.**.nic.mac1609_4.useServiceChannel = false

*.**.nic.mac1609_4.txPower = 20mW
*.**.nic.mac1609_4.bitrate = 6Mbps
*.**.nic.phy80211p.minPowerLevel = -110dBm

*.**.nic.phy80211p.useNoiseFloor = true
*.**.nic.phy80211p.noiseFloor = -98dBm

*.**.nic.phy80211p.decider = xmldoc("config.xml")
*.**.nic.phy80211p.analogueModels = xmldoc("config.xml")
*.**.nic.phy80211p.usePropagationDelay = true
*.**.nic.phy80211p.antenna = xmldoc("antenna.xml", "/root/Antenna[@id='monopole']")

*.nic.mac1609_4.useServiceChannel = false

*.nic.mac1609_4.txPower = 20mW
*.nic.mac1609_4.bitrate = 6Mbps
*.nic.phy80211p.minPowerLevel = -110dBm

*.nic.phy80211p.useNoiseFloor = true
*.nic.phy80211p.noiseFloor = -98dBm

*.nic.phy80211p.decider = xmldoc("config.xml")
*.nic.phy80211p.analogueModels = xmldoc("config.xml")
*.nic.phy80211p.usePropagationDelay = true
*.nic.phy80211p.antenna = xmldoc("antenna.xml", "/root/Antenna[@id='monopole']")


##########################################################
#                      App Layer                         #
##########################################################
*.radar[*].applType = "TraCIDemoRSU11p"
*.radar[*].appl.headerLength = 80 bit
*.radar[*].appl.sendBeacons = false
*.radar[*].appl.dataOnSch = false
*.radar[*].appl.beaconInterval = 1s
*.radar[*].appl.beaconUserPriority = 7
*.radar[*].appl.dataUserPriority = 5
*.radar[*].nic.phy80211p.antennaOffsetZ = 0 m

*.viatura[*].applType = "TraCIDemo11p"
*.viatura[*].appl.headerLength = 80 bit
*.viatura[*].appl.sendBeacons = false
*.viatura[*].appl.dataOnSch = false
*.viatura[*].appl.beaconInterval = 1s

*.despachante.mobility.x = 0
*.despachante.mobility.y = 0
*.despachante.mobility.z = 0
*.despachante.applType = "TraCIDemoRSU11p"

*.radar[*].mobility.x = 0
*.radar[*].mobility.y = 0
*.radar[*].mobility.z = 0

##########################################################
#                      Mobility                          #
##########################################################
*.viatura[*].veinsmobility.x = 0
*.viatura[*].veinsmobility.y = 0
*.viatura[*].veinsmobility.z = 0
*.viatura[*].veinsmobility.setHostSpeed = false

*.fugitivo.applType = "TraCIDemo11p"
*.fugitivo.veinsmobility.x = 0
*.fugitivo.veinsmobility.y = 0
*.fugitivo.veinsmobility.z = 0



